ROMS/TOMS Version 2.1, Released May 5, 2004

