ROMS/TOMS Version 2.2, Released May 26, 2005
