ROMS/TOMS Version 2.0, Released June 30, 2003

