# svn $Id$
#::::::::::::::::::::::::::::::::::::::::::::::::::::::::::::::::::::::::::
# Copyright (c) 2002-2007 The ROMS/TOMS Group                           :::
#   Licensed under a MIT/X style license                                :::
#   See License_ROMS.txt                                                :::
#::::::::::::::::::::::::::::::::::::::::::::::::::::::::::::::::::::::::::
#
# Include file for GNU g95 on Cygwin
# -------------------------------------------------------------------------
#
# ARPACK_LIBDIR  ARPACK libary directory
# FC             Name of the fortran compiler to use
# FFLAGS         Flags to the fortran compiler
# CPP            Name of the C-preprocessor
# CPPFLAGS       Flags to the C-preprocessor
# NETCDF_INCDIR  NetCDF include directory
# NETCDF_LIBDIR  NetCDF libary directory
# LD             Program to load the objects into an executable
# LDFLAGS        Flags to the loader
# RANLIB         Name of ranlib command
# MDEPFLAGS      Flags for sfmakedepend  (-s if you keep .f files)
#
# First the defaults
#

              BIN := $(BIN).exe

               FC := gfortran
           FFLAGS := -frepack-arrays
              CPP := /usr/bin/cpp
         CPPFLAGS := -P -traditional
               LD := $(FC)
          LDFLAGS := 
               AR := ar
          ARFLAGS := -r
            MKDIR := mkdir -p
               RM := rm -f
           RANLIB := ranlib
             PERL := perl
             TEST := test

        MDEPFLAGS := --cpp --fext=f90 --file=- --objdir=$(SCRATCH_DIR)

#
# Library locations, can be overridden by environment variables.
#

       MCT_LIBDIR ?= /usr/local/mct/lib
    NETCDF_INCDIR ?= /usr/include
    NETCDF_LIBDIR ?= /usr/local/lib

         CPPFLAGS += -I$(NETCDF_INCDIR)
             LIBS := -L$(NETCDF_LIBDIR) -lnetcdf

ifdef USE_ARPACK
    ARPACK_LIBDIR ?= /usr/local/lib
             LIBS += -L$(ARPACK_LIBDIR) -larpack
endif

ifdef USE_DEBUG
           FFLAGS += -g -fbounds-check
else
           FFLAGS += -O3 -ffast-math
endif

ifdef SWAN_COUPLE
           FFLAGS += -ffixed-form -I/usr/local/mct/include
             LIBS += -L$(MCT_LIBDIR) -lmct -lmpeu
endif

# Turn off bounds checking for function def_var, as "dimension(*)"
# declarations confuse Gnu Fortran 95 bounds-checking code.

$(SCRATCH_DIR)/def_var.o: FFLAGS += -fno-bounds-check

#
# Set free form format in source files to allow long string for
# local directory and compilation flags inside the code.
#

$(SCRATCH_DIR)/mod_ncparam.o: FFLAGS += -ffree-form
$(SCRATCH_DIR)/mod_strings.o: FFLAGS += -ffree-form
