# svn $Id$
#::::::::::::::::::::::::::::::::::::::::::::::::::::::::::::::::::::::::::
# Copyright (c) 2002-2007 The ROMS/TOMS Group                           :::
#   Licensed under a MIT/X style license                                :::
#   See License_ROMS.txt                                                :::
#::::::::::::::::::::::::::::::::::::::::::::::::::::::::::::::::::::::::::
#
# Include file for PGI Fortran compiler on Linux
# -------------------------------------------------------------------------
#
# ARPACK_LIBDIR  ARPACK libary directory
# FC             Name of the fortran compiler to use
# FFLAGS         Flags to the fortran compiler
# CPP            Name of the C-preprocessor
# CPPFLAGS       Flags to the C-preprocessor
# CLEAN          Name of cleaning executable after C-preprocessing
# NETCDF_INCDIR  NetCDF include directory
# NETCDF_LIBDIR  NetCDF libary directory
# LD             Program to load the objects into an executable
# LDFLAGS        Flags to the loader
# RANLIB         Name of ranlib command
# MDEPFLAGS      Flags for sfmakedepend  (-s if you keep .f files)
#
# First the defaults
#
               FC := pgf90
           FFLAGS :=
              CPP := /usr/bin/cpp
         CPPFLAGS := -P -traditional
               LD := $(FC)
          LDFLAGS := 
               AR := ar
          ARFLAGS := r
            MKDIR := mkdir -p
               RM := rm -f
           RANLIB := ranlib
	     PERL := perl
             TEST := test

        MDEPFLAGS := --cpp --fext=f90 --file=- --objdir=$(SCRATCH_DIR)

#
# Library locations, can be overridden by environment variables.
#

ifdef USE_MCT
       MCT_INCDIR ?= /opt/pgisoft/mct/include
       MCT_LIBDIR ?= /opt/pgidoft/mct/lib
endif
    NETCDF_INCDIR ?= /opt/pgisoft/netcdf/include
    NETCDF_LIBDIR ?= /opt/pgisoft/netcdf/lib

         CPPFLAGS += -I$(NETCDF_INCDIR)
             LIBS := -L$(NETCDF_LIBDIR) -lnetcdf

ifdef USE_ARPACK
 ifdef USE_MPI
   PARPACK_LIBDIR ?= /opt/pgisoft/PARPACK
             LIBS += -L$(PARPACK_LIBDIR) -lparpack
 endif
    ARPACK_LIBDIR ?= /opt/pgisoft/PARPACK
             LIBS += -L$(ARPACK_LIBDIR) -larpack
endif

ifdef USE_MPI
         CPPFLAGS += -DMPI
 ifdef USE_MPIF90
               FC := mpif90
               LD := $(FC)
 else
             LIBS += -Bdynamic -lfmpi-pgi -lmpi-pgi -Bstatic
 endif
endif

ifdef USE_OpenMP
         CPPFLAGS += -D_OPENMP
endif

ifdef USE_DEBUG
#          FFLAGS += -g -C -Mchkstk -Mchkfpstk
           FFLAGS += -g -C
#          FFLAGS += -g
else
           FFLAGS += -Bstatic -fastsse -Mipa=fast -tp k8-64
endif

ifdef USE_MCT
           FFLAGS += -I$(MCT_INCDIR)
             LIBS += -L$(MCT_LIBDIR) -lmct -lmpeu
endif

       clean_list += ifc* work.pc*

#
# Set free form format in source files to allow long string for
# local directory and compilation flags inside the code.
#

$(SCRATCH_DIR)/mod_ncparam.o: FFLAGS += -Mfree
$(SCRATCH_DIR)/mod_strings.o: FFLAGS += -Mfree

#
# Supress free format in SWAN source files since there are comments
# beyond column 72.
#

ifdef USE_SWAN

$(SCRATCH_DIR)/ocpcre.o: FFLAGS += -Mnofree
$(SCRATCH_DIR)/ocpids.o: FFLAGS += -Mnofree
$(SCRATCH_DIR)/ocpmix.o: FFLAGS += -Mnofree
$(SCRATCH_DIR)/swancom1.o: FFLAGS += -Mnofree
$(SCRATCH_DIR)/swancom2.o: FFLAGS += -Mnofree
$(SCRATCH_DIR)/swancom3.o: FFLAGS += -Mnofree
$(SCRATCH_DIR)/swancom4.o: FFLAGS += -Mnofree
$(SCRATCH_DIR)/swancom5.o: FFLAGS += -Mnofree
$(SCRATCH_DIR)/swanmain.o: FFLAGS += -Mnofree
$(SCRATCH_DIR)/swanout1.o: FFLAGS += -Mnofree
$(SCRATCH_DIR)/swanout2.o: FFLAGS += -Mnofree
$(SCRATCH_DIR)/swanparll.o: FFLAGS += -Mnofree
$(SCRATCH_DIR)/swanpre1.o: FFLAGS += -Mnofree
$(SCRATCH_DIR)/swanpre2.o: FFLAGS += -Mnofree
$(SCRATCH_DIR)/swanser.o: FFLAGS += -Mnofree
$(SCRATCH_DIR)/swmod1.o: FFLAGS += -Mnofree
$(SCRATCH_DIR)/swmod2.o: FFLAGS += -Mnofree
$(SCRATCH_DIR)/swmod3.o: FFLAGS += -Mnofree

endif
