# svn $Id$
#::::::::::::::::::::::::::::::::::::::::::::::::::::: Hernan G. Arango :::
# Copyright (c) 2002-2007 The ROMS/TOMS Group             Kate Hedstrom :::
#   Licensed under a MIT/X style license                                :::
#   See License_ROMS.txt                                                :::
#::::::::::::::::::::::::::::::::::::::::::::::::::::::::::::::::::::::::::

local_sub  := ROMS/Functionals

local_lib  := libANA.a
local_src  := $(wildcard $(local_sub)/*.F)
path_srcs  += $(local_src)

local_src  := $(patsubst $(local_sub)/%.F,%.F,$(local_src))
local_objs := $(subst .F,.o,$(local_src))

libraries += $(local_lib)
sources   += $(local_src)

$(local_lib): $(local_objs)
	$(AR) $(ARFLAGS) $@ $^
	$(RANLIB) $@
