ROMS/TOMS Framework: Mar 28, 2022
===================

Copyright (c) 2002-2022 The ROMS/TOMS Group
  Licensed under a MIT/X style license
  See License_ROMS.txt

git: $URL https://www.myroms.org/git/src $
git: $Id$

svn: $HeadURL: https://www.myroms.org/svn/src/trunk/ROMS/Version $
svn: $LastChangedBy: arango $
svn: $LastChangedRevision: 1118 $
svn: $LastChangedDate: 2022-03-28 17:16:14 -0400 (Mon, 28 Mar 2022) $

