ROMS/TOMS Framework:  April 9, 2023
===================

Copyright (c) 2002-2023 The ROMS/TOMS Group
  Licensed under a MIT/X style license
  See License_ROMS.txt

git: $URL https://www.myroms.org/git/src $
git: $Id$

svn: $HeadURL: https://www.myroms.org/svn/src/trunk/ROMS/Version $
svn: $LastChangedBy: arango $
svn: $LastChangedRevision: 1165 $
svn: $LastChangedDate: 2023-04-09 21:59:07 -0400 (Sun, 09 Apr 2023) $

