ROMS/TOMS Framework: Oct 23, 2023
===================

Copyright (c) 2002-2023 The ROMS/TOMS Group
  Licensed under a MIT/X style license
  See License_ROMS.md

git: $URL https://github.com/myroms/roms $
git: $Id$

svn: $HeadURL: https://www.myroms.org/svn/src/trunk/ROMS/Version $
svn: $LastChangedBy: arango $
svn: $LastChangedRevision: 1202 $
svn: $LastChangedDate: 2023-10-24 11:36:07 -0400 (Tue, 24 Oct 2023) $

