ROMS/TOMS Framework: Sep 28, 2021
===================

Copyright (c) 2002-2021 The ROMS/TOMS Group
  Licensed under a MIT/X style license
  See License_ROMS.txt

git: $URL https://www.myroms.org/git/src $
git: $Id$

svn: $HeadURL: https://www.myroms.org/svn/src/trunk/ROMS/Version $
svn: $LastChangedBy: arango $
svn: $LastChangedRevision: 1090 $
svn: $LastChangedDate: 2021-09-28 23:19:30 -0400 (Tue, 28 Sep 2021) $

