ROMS/TOMS Framework: July 13, 2020
===================

Copyright (c) 2002-2020 The ROMS/TOMS Group
  Licensed under a MIT/X style license
  See License_ROMS.txt

git: $URL https://www.myroms.org/git/src $
git: $Id$

svn: $HeadURL: https://www.myroms.org/svn/src/trunk/ROMS/Version $
svn: $LastChangedBy: arango $
svn: $LastChangedRevision: 1031 $
svn: $LastChangedDate: 2020-07-13 21:39:55 -0400 (Mon, 13 Jul 2020) $

