ROMS/TOMS Framework: Apr 25, 2022
===================

Copyright (c) 2002-2022 The ROMS/TOMS Group
  Licensed under a MIT/X style license
  See License_ROMS.txt

git: $URL https://www.myroms.org/git/src $
git: $Id$

svn: $HeadURL: https://www.myroms.org/svn/src/trunk/ROMS/Version $
svn: $LastChangedBy: arango $
svn: $LastChangedRevision: 1123 $
svn: $LastChangedDate: 2022-04-25 20:10:19 -0400 (Mon, 25 Apr 2022) $

