ROMS/TOMS Framework:  Oct 15, 2013
===================

Copyright (c) 2002-2013 The ROMS/TOMS Group
  Licensed under a MIT/X style license
  See License_ROMS.txt

svn: $HeadURL$
svn: $LastChangedBy$
svn: $LastChangedRevision$
svn: $LastChangedDate$
