ROMS/TOMS Framework: July 27, 2020
===================

Copyright (c) 2002-2020 The ROMS/TOMS Group
  Licensed under a MIT/X style license
  See License_ROMS.txt

git: $URL https://www.myroms.org/git/src $
git: $Id$

svn: $HeadURL: https://www.myroms.org/svn/src/trunk/ROMS/Version $
svn: $LastChangedBy: arango $
svn: $LastChangedRevision: 1035 $
svn: $LastChangedDate: 2020-07-27 20:49:02 -0400 (Mon, 27 Jul 2020) $

