ROMS/TOMS Framework: Jun 30, 2023
===================

Copyright (c) 2002-2023 The ROMS/TOMS Group
  Licensed under a MIT/X style license
  See License_ROMS.txt

svn: $HeadURL$
svn: $LastChangedBy$
svn: $LastChangedRevision$
svn: $LastChangedDate$

