ROMS/TOMS Framework: May 27, 2021
===================

Copyright (c) 2002-2021 The ROMS/TOMS Group
  Licensed under a MIT/X style license
  See License_ROMS.txt

git: $URL https://www.myroms.org/git/src $
git: $Id$

svn: $HeadURL: https://www.myroms.org/svn/src/trunk/ROMS/Version $
svn: $LastChangedBy: arango $
svn: $LastChangedRevision: 1067 $
svn: $LastChangedDate: 2021-05-27 01:11:41 -0400 (Thu, 27 May 2021) $

