ROMS/TOMS Framework: Nov 30, 2023
===================

Copyright (c) 2002-2023 The ROMS/TOMS Group
  Licensed under a MIT/X style license
  See License_ROMS.md

git: $URL https://github.com/myroms/roms $
git: $Id$

svn: $HeadURL: https://www.myroms.org/svn/src/trunk/ROMS/Version $
svn: $LastChangedBy: arango $
svn: $LastChangedRevision: 1209 $
svn: $LastChangedDate: 2023-11-30 21:17:45 -0500 (Thu, 30 Nov 2023) $

