ROMS/TOMS Framework: Aug 31, 2023
===================

Copyright (c) 2002-2023 The ROMS/TOMS Group
  Licensed under a MIT/X style license
  See License_ROMS.txt

git: $URL https://github.com/myroms/roms $
git: $Id$

svn: $HeadURL: https://www.myroms.org/svn/src/trunk/ROMS/Version $
svn: $LastChangedBy: arango $
svn: $LastChangedRevision: 1196 $
svn: $LastChangedDate: 2023-08-31 16:10:19 -0400 (Thu, 31 Aug 2023) $

