ROMS/TOMS Framework: August 21, 2008
===================

Copyright (c) 2002-2008 The ROMS/TOMS Group
  Licensed under a MIT/X style license
  See License_ROMS.txt

svn: $HeadURL$
svn: $LastChangedBy$
svn: $LastChangedRevision$
svn: $LastChangedDate$
svn: $Id$
