ROMS/TOMS Framework: Jan 25, 2022
===================

Copyright (c) 2002-2022 The ROMS/TOMS Group
  Licensed under a MIT/X style license
  See License_ROMS.txt

git: $URL https://www.myroms.org/git/src $
git: $Id$

svn: $HeadURL: https://www.myroms.org/svn/src/trunk/ROMS/Version $
svn: $LastChangedBy: arango $
svn: $LastChangedRevision: 1106 $
svn: $LastChangedDate: 2022-01-25 21:36:18 -0500 (Tue, 25 Jan 2022) $

