ROMS/TOMS Framework: Feb 28, 2022
===================

Copyright (c) 2002-2022 The ROMS/TOMS Group
  Licensed under a MIT/X style license
  See License_ROMS.txt

git: $URL https://www.myroms.org/git/src $
git: $Id$

svn: $HeadURL: https://www.myroms.org/svn/src/trunk/ROMS/Version $
svn: $LastChangedBy: arango $
svn: $LastChangedRevision: 1112 $
svn: $LastChangedDate: 2022-02-28 11:11:38 -0500 (Mon, 28 Feb 2022) $

