ROMS/TOMS Framework: Jan 10, 2020
===================

Copyright (c) 2002-2020 The ROMS/TOMS Group
  Licensed under a MIT/X style license
  See License_ROMS.txt

git: $URL https://www.myroms.org/git/src $
git: $Id$

svn: $HeadURL: https://www.myroms.org/svn/src/trunk/ROMS/Version $
svn: $LastChangedBy: arango $
svn: $LastChangedRevision: 1001 $
svn: $LastChangedDate: 2020-01-10 17:41:16 -0500 (Fri, 10 Jan 2020) $
