ROMS/TOMS Framework: November 11, 2020
===================

Copyright (c) 2002-2020 The ROMS/TOMS Group
  Licensed under a MIT/X style license
  See License_ROMS.txt

git: $URL https://www.myroms.org/git/src $
git: $Id$

svn: $HeadURL: https://www.myroms.org/svn/src/trunk/ROMS/Version $
svn: $LastChangedBy: arango $
svn: $LastChangedRevision: 1043 $
svn: $LastChangedDate: 2020-11-11 23:56:14 -0500 (Wed, 11 Nov 2020) $

