ROMS/TOMS Framework: Jan 6, 2022
===================

Copyright (c) 2002-2022 The ROMS/TOMS Group
  Licensed under a MIT/X style license
  See License_ROMS.txt

git: $URL https://www.myroms.org/git/src $
git: $Id$

svn: $HeadURL: https://www.myroms.org/svn/src/trunk/ROMS/Version $
svn: $LastChangedBy: arango $
svn: $LastChangedRevision: 1099 $
svn: $LastChangedDate: 2022-01-06 16:01:01 -0500 (Thu, 06 Jan 2022) $

