ROMS/TOMS Framework:  March 24, 2023
===================

Copyright (c) 2002-2023 The ROMS/TOMS Group
  Licensed under a MIT/X style license
  See License_ROMS.txt

git: $URL https://www.myroms.org/git/src $
git: $Id$

svn: $HeadURL: https://www.myroms.org/svn/src/trunk/ROMS/Version $
svn: $LastChangedBy: arango $
svn: $LastChangedRevision: 1159 $
svn: $LastChangedDate: 2023-03-24 19:49:03 -0400 (Fri, 24 Mar 2023) $

