ROMS/TOMS Framework: October 15, 2020
===================

Copyright (c) 2002-2020 The ROMS/TOMS Group
  Licensed under a MIT/X style license
  See License_ROMS.txt

git: $URL https://www.myroms.org/git/src $
git: $Id$

svn: $HeadURL: https://www.myroms.org/svn/src/trunk/ROMS/Version $
svn: $LastChangedBy: arango $
svn: $LastChangedRevision: 1041 $
svn: $LastChangedDate: 2020-10-15 20:00:17 -0400 (Thu, 15 Oct 2020) $

