ROMS/TOMS Framework: Feb 6, 2020
===================

Copyright (c) 2002-2020 The ROMS/TOMS Group
  Licensed under a MIT/X style license
  See License_ROMS.txt

git: $URL https://www.myroms.org/git/src $
git: $Id$

svn: $HeadURL: https://www.myroms.org/svn/src/trunk/ROMS/Version $
svn: $LastChangedBy: arango $
svn: $LastChangedRevision: 1005 $
svn: $LastChangedDate: 2020-02-06 18:03:06 -0500 (Thu, 06 Feb 2020) $
