ROMS/TOMS Framework: June 1, 2022
===================

Copyright (c) 2002-2022 The ROMS/TOMS Group
  Licensed under a MIT/X style license
  See License_ROMS.txt

git: $URL https://www.myroms.org/git/src $
git: $Id$

svn: $HeadURL: https://www.myroms.org/svn/src/trunk/ROMS/Version $
svn: $LastChangedBy: arango $
svn: $LastChangedRevision: 1130 $
svn: $LastChangedDate: 2022-06-01 16:41:14 -0400 (Wed, 01 Jun 2022) $

