ROMS/TOMS Framework: Apr 6, 2020
===================

Copyright (c) 2002-2020 The ROMS/TOMS Group
  Licensed under a MIT/X style license
  See License_ROMS.txt

git: $URL https://www.myroms.org/git/src $
git: $Id$

svn: $HeadURL: https://www.myroms.org/svn/src/trunk/ROMS/Version $
svn: $LastChangedBy: arango $
svn: $LastChangedRevision: 1014 $
svn: $LastChangedDate: 2020-04-06 11:48:43 -0400 (Mon, 06 Apr 2020) $
