ROMS/TOMS Framework: Jul 9, 2019
===================

Copyright (c) 2002-2019 The ROMS/TOMS Group
  Licensed under a MIT/X style license
  See License_ROMS.txt

git: $URL https://www.myroms.org/git/src $
git: $Id$

svn: $HeadURL: https://www.myroms.org/svn/src/trunk/ROMS/Version $
svn: $LastChangedBy: arango $
svn: $LastChangedRevision: 972 $
svn: $LastChangedDate: 2019-07-09 16:18:46 -0400 (Tue, 09 Jul 2019) $
