ROMS/TOMS Framework: Jul 23, 2021
===================

Copyright (c) 2002-2021 The ROMS/TOMS Group
  Licensed under a MIT/X style license
  See License_ROMS.txt

git: $URL https://www.myroms.org/git/src $
git: $Id$

svn: $HeadURL: https://www.myroms.org/svn/src/trunk/ROMS/Version $
svn: $LastChangedBy: arango $
svn: $LastChangedRevision: 1081 $
svn: $LastChangedDate: 2021-07-23 22:25:06 -0400 (Fri, 23 Jul 2021) $

