ROMS/TOMS Framework: May 12, 2022
===================

Copyright (c) 2002-2022 The ROMS/TOMS Group
  Licensed under a MIT/X style license
  See License_ROMS.txt

git: $URL https://www.myroms.org/git/src $
git: $Id$

svn: $HeadURL: https://www.myroms.org/svn/src/trunk/ROMS/Version $
svn: $LastChangedBy: arango $
svn: $LastChangedRevision: 1126 $
svn: $LastChangedDate: 2022-05-12 23:17:28 -0400 (Thu, 12 May 2022) $

