ROMS/TOMS Framework: Aug 18, 2021
===================

Copyright (c) 2002-2021 The ROMS/TOMS Group
  Licensed under a MIT/X style license
  See License_ROMS.txt

git: $URL https://www.myroms.org/git/src $
git: $Id$

svn: $HeadURL: https://www.myroms.org/svn/src/trunk/ROMS/Version $
svn: $LastChangedBy: arango $
svn: $LastChangedRevision: 1086 $
svn: $LastChangedDate: 2021-08-18 15:23:15 -0400 (Wed, 18 Aug 2021) $

