ROMS/TOMS Framework: Oct 24, 2019
===================

Copyright (c) 2002-2019 The ROMS/TOMS Group
  Licensed under a MIT/X style license
  See License_ROMS.txt

git: $URL https://www.myroms.org/git/src $
git: $Id$

svn: $HeadURL: https://www.myroms.org/svn/src/trunk/ROMS/Version $
svn: $LastChangedBy: arango $
svn: $LastChangedRevision: 984 $
svn: $LastChangedDate: 2019-10-24 22:11:54 -0400 (Thu, 24 Oct 2019) $
