ROMS/TOMS Framework: September 28, 2022
===================

Copyright (c) 2002-2022 The ROMS/TOMS Group
  Licensed under a MIT/X style license
  See License_ROMS.txt

git: $URL https://www.myroms.org/git/src $
git: $Id$

svn: $HeadURL: https://www.myroms.org/svn/src/trunk/ROMS/Version $
svn: $LastChangedBy: arango $
svn: $LastChangedRevision: 1139 $
svn: $LastChangedDate: 2022-09-28 12:04:42 -0400 (Wed, 28 Sep 2022) $

