ROMS/TOMS Framework: Jul 11, 2023
===================

Copyright (c) 2002-2023 The ROMS/TOMS Group
  Licensed under a MIT/X style license
  See License_ROMS.txt

git: $URL https://github.com/myroms/roms $
git: $Id$

svn: $HeadURL: https://www.myroms.org/svn/src/trunk/ROMS/Version $
svn: $LastChangedBy: arango $
svn: $LastChangedRevision: 1178 $
svn: $LastChangedDate: 2023-07-11 13:50:57 -0400 (Tue, 11 Jul 2023) $

