ROMS/TOMS Framework: August 22, 2007
===================

Copyright (c) 2002-2007 The ROMS/TOMS Group
  Licensed under a MIT/X style license
  See License_ROMS.txt

svn: $HeadURL$
svn: $LastChangedBy$
svn: $LastChangedRevision$
svn: $LastChangedDate$
svn: $Id$
