ROMS/TOMS Framework: Oct 27, 2023
===================

Copyright (c) 2002-2024 The ROMS/TOMS Group
  Licensed under a MIT/X style license
  See License_ROMS.md

git: $URL https://github.com/myroms/roms $
git: $Id$

svn: $HeadURL: https://www.myroms.org/svn/src/trunk/ROMS/Version $
svn: $LastChangedBy: arango $
svn: $LastChangedRevision: 1207 $
svn: $LastChangedDate: 2023-10-27 17:28:58 -0400 (Fri, 27 Oct 2023) $

