ROMS/TOMS Framework: February 3, 2019
===================

Copyright (c) 2002-2019 The ROMS/TOMS Group
  Licensed under a MIT/X style license
  See License_ROMS.txt

svn: $HeadURL$
svn: $LastChangedBy$
svn: $LastChangedRevision$
svn: $LastChangedDate$
