ROMS/TOMS Framework:  March 27, 2023
===================

Copyright (c) 2002-2023 The ROMS/TOMS Group
  Licensed under a MIT/X style license
  See License_ROMS.txt

git: $URL https://www.myroms.org/git/src $
git: $Id$

svn: $HeadURL: https://www.myroms.org/svn/src/trunk/ROMS/Version $
svn: $LastChangedBy: arango $
svn: $LastChangedRevision: 1161 $
svn: $LastChangedDate: 2023-03-27 16:46:38 -0400 (Mon, 27 Mar 2023) $

