ROMS/TOMS Framework: December 3, 2022
===================

Copyright (c) 2002-2022 The ROMS/TOMS Group
  Licensed under a MIT/X style license
  See License_ROMS.txt

git: $URL https://www.myroms.org/git/src $
git: $Id$

svn: $HeadURL: https://www.myroms.org/svn/src/trunk/ROMS/Version $
svn: $LastChangedBy: arango $
svn: $LastChangedRevision: 1147 $
svn: $LastChangedDate: 2022-12-03 11:19:17 -0500 (Sat, 03 Dec 2022) $

