ROMS/TOMS Framework: Oct 30, 2019
===================

Copyright (c) 2002-2019 The ROMS/TOMS Group
  Licensed under a MIT/X style license
  See License_ROMS.txt

git: $URL https://www.myroms.org/git/src $
git: $Id$

svn: $HeadURL: https://www.myroms.org/svn/src/trunk/ROMS/Version $
svn: $LastChangedBy: arango $
svn: $LastChangedRevision: 986 $
svn: $LastChangedDate: 2019-10-30 16:00:14 -0400 (Wed, 30 Oct 2019) $
