ROMS/TOMS Framework: July 15, 2020
===================

Copyright (c) 2002-2020 The ROMS/TOMS Group
  Licensed under a MIT/X style license
  See License_ROMS.txt

git: $URL https://www.myroms.org/git/src $
git: $Id$

svn: $HeadURL: https://www.myroms.org/svn/src/trunk/ROMS/Version $
svn: $LastChangedBy: arango $
svn: $LastChangedRevision: 1034 $
svn: $LastChangedDate: 2020-07-15 17:16:28 -0400 (Wed, 15 Jul 2020) $

