ROMS/TOMS Framework: Nov 30, 2023
===================

Copyright (c) 2002-2024 The ROMS/TOMS Group
  Licensed under a MIT/X style license
  See License_ROMS.md

git: $URL https://github.com/myroms/roms $
git: $Id$

svn: $HeadURL: https://www.myroms.org/svn/src/trunk/ROMS/Version $
svn: $LastChangedBy: arango $
svn: $LastChangedRevision: 1210 $
svn: $LastChangedDate: 2024-01-03 17:03:03 -0500 (Wed, 03 Jan 2024) $

