ROMS/TOMS Framework: Oct 15, 2021
===================

Copyright (c) 2002-2021 The ROMS/TOMS Group
  Licensed under a MIT/X style license
  See License_ROMS.txt

git: $URL https://www.myroms.org/git/src $
git: $Id$

svn: $HeadURL: https://www.myroms.org/svn/src/trunk/ROMS/Version $
svn: $LastChangedBy: arango $
svn: $LastChangedRevision: 1096 $
svn: $LastChangedDate: 2021-10-15 22:19:24 -0400 (Fri, 15 Oct 2021) $

