# git $Id: 560fb376ff8a4576170ebcd4b459de6bcce908f6 $
# svn $Id: Module.mk 937 2019-01-28 06:13:04Z arango $
#::::::::::::::::::::::::::::::::::::::::::::::::::::: Hernan G. Arango :::
# Copyright (c) 2002-2019 The ROMS/TOMS Group             Kate Hedstrom :::
#   Licensed under a MIT/X style license                                :::
#   See License_ROMS.txt                                                :::
#::::::::::::::::::::::::::::::::::::::::::::::::::::::::::::::::::::::::::

local_sub  := ROMS/Nonlinear/Biology

local_lib  := libNLM_bio.a
local_src  := $(wildcard $(local_sub)/*.F)

$(eval $(call make-library,$(local_lib),$(local_src)))

$(eval $(compile-rules))
